data/network_10/Feeder_3/LineCode.txt
! Subset of available target linecodes, which are closest to the original ones in terms of positive sequence impedance
! ---------------------------------------------------------------------------------------------------------------------------------------------------------------------------------------------------
! original name: BS 5467 1997 table 10 16 (50 Hz)
New LineCode.LC1 nphases=3 Units=km
~ Rmatrix=(1.5112190183206278 0.3516463191860947 0.35924119542631033 | 0.3516463191860947 1.4959834903633085 0.3516347677246592 | 0.35924119542631033 0.3516347677246592 1.5111953727391252)
~ Xmatrix=(0.4826133666935237 0.41067342236929216 0.3786293578031279 | 0.41067342236929216 0.4985555265646619 0.4106561462112567 | 0.3786293578031279 0.4106561462112567 0.48258034857901405)
~ Cmatrix=(0.0 0.0 0.0 | 0.0 0.0 0.0 | 0.0 0.0 0.0)

! original name: BS 5467 1997 table 10 70 (50 Hz)
New LineCode.LC4 nphases=3 Units=km
~ Rmatrix=(0.44953913376315724 0.17616199136098196 0.1785122816803393 | 0.1761619913609819 0.4429873630446448 0.1761926354329793 | 0.1785122816803393 0.1761926354329793 0.44960242548376383)
~ Xmatrix=(0.1644338736389795 0.11425582422645958 0.07301236488580165 | 0.11425582422645952 0.19845465242237786 0.11427426646422706 | 0.07301236488580165 0.11427426646422706 0.16448084404397678)
~ Cmatrix=(0.0 0.0 0.0 | 0.0 0.0 0.0 | 0.0 0.0 0.0)

! original name: BS 6480 1988 table 17 Cu 16 (50 Hz)
New LineCode.LC6 nphases=3 Units=km
~ Rmatrix=(1.7933236711472256 0.6363723759193842 0.6399235094508074 | 0.6363723759193842 1.784886510251047 0.6363722249590626 | 0.6399235094508074 0.6363722249590626 1.7933243477547518)
~ Xmatrix=(0.31879625459756056 0.251481213905138 0.20435482237859037 | 0.251481213905138 0.3529353602963323 0.25148177638394376 | 0.20435482237859037 0.25148177638394376 0.3188003901594534)
~ Cmatrix=(0.0 0.0 0.0 | 0.0 0.0 0.0 | 0.0 0.0 0.0)

! original name: Waveform 4-core 300 IEC 60287 (50 Hz)
New LineCode.LC8 nphases=3 Units=km
~ Rmatrix=(0.16985456261876042 0.06410019258565515 0.06319856261876039 | 0.06410019258565515 0.17321094309067292 0.06410019258565515 | 0.06319856261876039 0.06410019258565515 0.16985456261876042)
~ Xmatrix=(0.09071426854225961 0.04262044882571683 0.008149268542259613 | 0.04262044882571683 0.11502590419087233 0.04262044882571683 | 0.008149268542259613 0.04262044882571683 0.09071426854225961)
~ Cmatrix=(0.0 0.0 0.0 | 0.0 0.0 0.0 | 0.0 0.0 0.0)

! original name: Waveform 4-core 95 IEC 60287 (50 Hz)
New LineCode.LC9 nphases=3 Units=km
~ Rmatrix=(0.46986676385495474 0.1454235094893396 0.1470597638549548 | 0.1454235094893396 0.4673400201731894 0.1454235094893396 | 0.1470597638549548 0.1454235094893396 0.46986676385495474)
~ Xmatrix=(0.1144434279169435 0.06325078830784545 0.030935427916943467 | 0.06325078830784545 0.13484657137128891 0.06325078830784545 | 0.030935427916943467 0.06325078830784545 0.1144434279169435)
~ Cmatrix=(0.0 0.0 0.0 | 0.0 0.0 0.0 | 0.0 0.0 0.0)
! ---------------------------------------------------------------------------------------------------------------------------------------------------------------------------------------------------